Version 4
SHEET 1 944 696
WIRE 368 -96 256 -96
WIRE 512 -96 448 -96
WIRE 800 144 800 128
WIRE 256 160 256 -96
WIRE 400 160 400 -48
WIRE 400 160 256 160
WIRE 800 160 800 144
WIRE 384 272 384 240
WIRE 96 288 48 288
WIRE 256 288 256 160
WIRE 256 288 176 288
WIRE 352 288 256 288
WIRE 512 304 512 -96
WIRE 512 304 416 304
WIRE 560 304 512 304
WIRE 576 304 560 304
WIRE 800 304 800 240
WIRE 928 304 800 304
WIRE 352 320 256 320
WIRE 928 320 928 304
WIRE 800 352 800 304
WIRE 384 384 384 336
WIRE 256 448 256 320
WIRE 800 464 800 432
WIRE 48 560 48 288
WIRE 256 560 256 528
FLAG 256 560 0
FLAG 48 560 0
FLAG 384 240 VCC
FLAG 384 384 VEE
FLAG 800 144 VCC
FLAG 800 464 VEE
FLAG 928 320 0
FLAG 560 304 Vout
FLAG 256 288 V1
SYMBOL OpAmps/OP07 384 240 R0
SYMATTR InstName U1
SYMBOL Res 192 272 R90
WINDOW 0 0 56 VBottom 2
WINDOW 3 32 56 VTop 2
SYMATTR InstName R
SYMATTR Value 1k
SYMBOL Voltage 256 432 R0
SYMATTR InstName Vin
SYMATTR Value PULSE(0 0.025 0.05 0 0 0.05 0.1)
SYMBOL Voltage 800 144 R0
SYMATTR InstName V2
SYMATTR Value 5
SYMBOL Voltage 800 336 R0
SYMATTR InstName V3
SYMATTR Value 5
SYMBOL pot 464 -112 R90
SYMATTR InstName Rf
SYMATTR Value Rtot=20K wiper=0.55
TEXT 392 624 Left 2 !.tran 0 500ms 0 1u
TEXT 392 680 Left 2 !.inc "pot.sub"
